
**** 11/05/22 05:13:01 ******* PSpice 17.4.0 (Nov 2018) ******* ID# 0 ********

 ** Profile: "SCHEMATIC1-schem1-test"  [ C:\00_Disk_D\00_HCMUT\Subject\221\EDC\Lab2\EDC Lab 2-PSpiceFiles\SCHEMATIC1\schem1-test.sim 


 ****     CIRCUIT DESCRIPTION


******************************************************************************




** Creating circuit file "schem1-test.cir" 
** WARNING: THIS AUTOMATICALLY GENERATED FILE MAY BE OVERWRITTEN BY SUBSEQUENT SIMULATIONS

*Libraries: 
* Profile Libraries :
* Local Libraries :
* From [PSPICE NETLIST] section of C:\cds_spb_home\cdssetup\OrCAD_PSpiceTIPSpice_Install\17.4.0\PSpice.ini file:
.lib "nom_pspti.lib" 
.lib "nom.lib" 

*Analysis directives: 
.DC LIN V_V1 0 5 0.1 
.OPTIONS ADVCONV
.OPTIONS FILEMODELSEARCH
.PROBE64 V(alias(*)) I(alias(*)) W(alias(*)) D(alias(*)) NOISE(alias(*)) 
.INC "..\SCHEMATIC1.net" 



**** INCLUDING SCHEMATIC1.net ****
* source EDC LAB 2
R_R1         N00149 N00130  1k TC=0,0 
D_D1         N00130 0 Dbreak 
V_V1         N00149 0 5Vdc

**** RESUMING schem1-test.cir ****
.END


          JOB CONCLUDED

**** 11/05/22 05:13:01 ******* PSpice 17.4.0 (Nov 2018) ******* ID# 0 ********

 ** Profile: "SCHEMATIC1-schem1-test"  [ C:\00_Disk_D\00_HCMUT\Subject\221\EDC\Lab2\EDC Lab 2-PSpiceFiles\SCHEMATIC1\schem1-test.sim 


 ****     JOB STATISTICS SUMMARY


******************************************************************************



  License check-out time            =        1.49
  Total job time (using Solver 1)   =         .41
